xflr5 v6.43

Plane name :        Team7_Mothership
Polar name :        Prop_Analysis_Viscous
Freestream speed :  18.000 m/s


   alpha      Beta       CL          CDi        CDv        CD         CY         Cl         Cm         Cn        Cni       QInf        XCP
  -12.500     0.000  -0.901113   0.056814   0.033300   0.090114   0.000000  -0.000000   0.331418  -0.000000  -0.000000   18.0000     0.2553
  -12.000     0.000  -0.863015   0.052307   0.030796   0.083102   0.000000  -0.000000   0.324176  -0.000000  -0.000000   18.0000     0.2574
  -11.500     0.000  -0.824732   0.047970   0.028889   0.076858   0.000000  -0.000000   0.316906  -0.000000  -0.000000   18.0000     0.2597
  -11.000     0.000  -0.786271   0.043807   0.027212   0.071019   0.000000  -0.000000   0.309592  -0.000000  -0.000000   18.0000     0.2624
  -10.500     0.000  -0.747640   0.039821   0.025666   0.065487   0.000000  -0.000000   0.302213  -0.000000  -0.000000   18.0000     0.2653
  -10.000     0.000  -0.708847   0.036016   0.024528   0.060544   0.000000  -0.000000   0.294852  -0.000000  -0.000000   18.0000     0.2686
   -9.500     0.000  -0.669899   0.032395   0.023400   0.055794   0.000000  -0.000000   0.287402  -0.000000  -0.000000   18.0000     0.2723
   -9.000     0.000  -0.630804   0.028959   0.022304   0.051263   0.000000  -0.000000   0.279841  -0.000000  -0.000000   18.0000     0.2765
   -8.500     0.000  -0.591570   0.025713   0.021287   0.047000   0.000000  -0.000000   0.272158  -0.000000  -0.000000   18.0000     0.2813
   -8.000     0.000  -0.552205   0.022658   0.020297   0.042955   0.000000  -0.000000   0.264367  -0.000000  -0.000000   18.0000     0.2868
   -7.500     0.000  -0.512718   0.019798   0.019309   0.039107   0.000000  -0.000000   0.256475  -0.000000  -0.000000   18.0000     0.2933
   -7.000     0.000  -0.473116   0.017133   0.018363   0.035496   0.000000  -0.000000   0.248499  -0.000000  -0.000000   18.0000     0.3008
   -6.500     0.000  -0.433408   0.014667   0.017446   0.032113   0.000000  -0.000000   0.240435  -0.000000  -0.000000   18.0000     0.3098
   -6.000     0.000  -0.393602   0.012401   0.016616   0.029017  -0.000000  -0.000000   0.232298  -0.000000  -0.000000   18.0000     0.3207
   -5.500     0.000  -0.353706   0.010338   0.015872   0.026209  -0.000000  -0.000000   0.224083  -0.000000   0.000000   18.0000     0.3340
   -5.000     0.000  -0.313729   0.008478   0.015173   0.023651  -0.000000  -0.000000   0.215776  -0.000000   0.000000   18.0000     0.3509
   -4.500     0.000  -0.273678   0.006823   0.014549   0.021372  -0.000000  -0.000000   0.207392   0.000000   0.000000   18.0000     0.3727
   -4.000     0.000  -0.233564   0.005375   0.013953   0.019328  -0.000000  -0.000000   0.198909   0.000000   0.000000   18.0000     0.4020
   -3.500     0.000  -0.193393   0.004135   0.013344   0.017479  -0.000000  -0.000000   0.190321   0.000000   0.000000   18.0000     0.4436
   -3.000     0.000  -0.153175   0.003103   0.012701   0.015805  -0.000000  -0.000000   0.181625   0.000000   0.000000   18.0000     0.5072
   -2.500     0.000  -0.112918   0.002282   0.012087   0.014369  -0.000000  -0.000000   0.172841   0.000000   0.000000   18.0000     0.6162
   -2.000     0.000  -0.072630   0.001670   0.011515   0.013186  -0.000000  -0.000000   0.163975   0.000000   0.000000   18.0000     0.8462
   -1.500     0.000  -0.032321   0.001270   0.010989   0.012259  -0.000000  -0.000000   0.155023   0.000000   0.000000   18.0000     1.6501
   -1.000     0.000   0.008001   0.001081   0.010564   0.011645  -0.000000  -0.000000   0.145991   0.000000   0.000000   18.0000    -5.6497
   -0.500     0.000   0.048328   0.001103   0.010259   0.011362  -0.000000   0.000000   0.136876   0.000000   0.000000   18.0000    -0.7671
    0.000     0.000   0.088651   0.001337   0.010040   0.011377  -0.000000   0.000000   0.127675   0.000000   0.000000   18.0000    -0.3265
    0.500     0.000   0.128961   0.001783   0.009929   0.011712  -0.000000   0.000000   0.118393   0.000000   0.000000   18.0000    -0.1613
    1.000     0.000   0.169250   0.002440   0.009919   0.012359  -0.000000   0.000000   0.109032   0.000000   0.000000   18.0000    -0.0748
    1.500     0.000   0.209510   0.003307   0.009977   0.013284  -0.000000   0.000000   0.099594   0.000000   0.000000   18.0000    -0.0216
    2.000     0.000   0.249730   0.004385   0.010059   0.014444  -0.000000   0.000000   0.090076   0.000000   0.000000   18.0000     0.0145
    2.500     0.000   0.289904   0.005672   0.010151   0.015823  -0.000000   0.000000   0.080482   0.000000   0.000000   18.0000     0.0405
    3.000     0.000   0.330022   0.007168   0.010240   0.017408  -0.000000   0.000000   0.070811   0.000000   0.000000   18.0000     0.0603
    3.500     0.000   0.370076   0.008871   0.010327   0.019199  -0.000000   0.000000   0.061068   0.000000   0.000000   18.0000     0.0757
    4.000     0.000   0.410057   0.010781   0.010421   0.021202  -0.000000   0.000000   0.051255   0.000000   0.000000   18.0000     0.0882
    4.500     0.000   0.449958   0.012896   0.010533   0.023428  -0.000000   0.000000   0.041376   0.000000   0.000000   18.0000     0.0984
    5.000     0.000   0.489768   0.015214   0.010669   0.025882  -0.000000   0.000000   0.031436   0.000000   0.000000   18.0000     0.1070
    5.500     0.000   0.529482   0.017733   0.010830   0.028563  -0.000000   0.000000   0.021437   0.000000   0.000000   18.0000     0.1143
    6.000     0.000   0.569089   0.020453   0.011012   0.031465  -0.000000   0.000000   0.011381   0.000000   0.000000   18.0000     0.1206
    6.500     0.000   0.608582   0.023370   0.011214   0.034584  -0.000000   0.000000   0.001273   0.000000   0.000000   18.0000     0.1262
    7.000     0.000   0.647952   0.026483   0.011440   0.037923  -0.000000   0.000000  -0.008887   0.000000   0.000000   18.0000     0.1310
    7.500     0.000   0.687191   0.029790   0.011681   0.041471  -0.000000   0.000000  -0.019093   0.000000   0.000000   18.0000     0.1353
    8.000     0.000   0.726292   0.033287   0.011941   0.045228  -0.000000   0.000000  -0.029344   0.000000   0.000000   18.0000     0.1392
    8.500     0.000   0.765246   0.036973   0.012231   0.049204  -0.000000   0.000000  -0.039635   0.000000   0.000000   18.0000     0.1427
    9.000     0.000   0.804045   0.040844   0.012574   0.053418  -0.000000   0.000000  -0.049960   0.000000   0.000000   18.0000     0.1458
    9.500     0.000   0.842682   0.044898   0.012995   0.057893  -0.000000   0.000000  -0.060310   0.000000   0.000000   18.0000     0.1487
   10.000     0.000   0.881148   0.049132   0.013512   0.062644  -0.000000   0.000000  -0.070681   0.000000   0.000000   18.0000     0.1514
   10.500     0.000   0.919436   0.053543   0.014135   0.067677  -0.000000   0.000000  -0.081068   0.000000   0.000000   18.0000     0.1538
   11.000     0.000   0.957539   0.058126   0.014871   0.072997  -0.000000   0.000000  -0.091468   0.000000   0.000000   18.0000     0.1561
   11.500     0.000   0.995449   0.062880   0.015681   0.078561  -0.000000   0.000000  -0.101881   0.000000   0.000000   18.0000     0.1582
   12.000     0.000   1.033158   0.067799   0.016585   0.084384  -0.000000   0.000000  -0.112330   0.000000   0.000000   18.0000     0.1602
   12.500     0.000   1.070659   0.072882   0.017648   0.090530  -0.000000   0.000000  -0.122825   0.000000   0.000000   18.0000     0.1621
   13.000     0.000   1.107945   0.078123   0.018917   0.097039  -0.000000   0.000000  -0.133347   0.000000   0.000000   18.0000     0.1638
   13.500     0.000   1.145009   0.083518   0.020480   0.103998  -0.000000   0.000000  -0.143892   0.000000   0.000000   18.0000     0.1655
   14.000     0.000   1.181844   0.089065   0.022843   0.111908  -0.000000   0.000000  -0.154371   0.000000   0.000000   18.0000     0.1671


