xflr5 v6.43

 Calculated polar for: NACA 2412

 1 1 Reynolds number fixed          Mach number fixed         

 xtrf =   1.000 (top)        1.000 (bottom)
 Mach =   0.000     Re =     0.350 e 6     Ncrit =   9.000

  alpha     CL        CD       CDp       Cm    Top Xtr Bot Xtr   Cpmin    Chinge    XCp    
 ------- -------- --------- --------- -------- ------- ------- -------- --------- ---------
 -15.000  -0.5427   0.17145   0.16834   0.0035  1.0000  0.0335  -1.7845   0.0000   0.2406
 -14.500  -0.5435   0.16291   0.15983  -0.0040  1.0000  0.0362  -1.9989   0.0000   0.2270
 -14.000  -0.5365   0.15438   0.15130  -0.0079  1.0000  0.0363  -2.0488   0.0000   0.2200
 -13.500  -0.5400   0.14268   0.13964  -0.0110  1.0000  0.0373  -2.1595   0.0000   0.2148
 -13.000  -0.5271   0.13633   0.13330  -0.0123  1.0000  0.0381  -2.0493   0.0000   0.2125
 -12.500  -0.5161   0.12977   0.12674  -0.0141  1.0000  0.0391  -1.9711   0.0000   0.2089
 -12.000  -0.5106   0.12206   0.11905  -0.0169  1.0000  0.0403  -2.0142   0.0000   0.2037
 -11.500  -0.8540   0.04215   0.03806  -0.0648  1.0000  0.0262  -5.8584   0.0000   0.1614
 -11.000  -0.8606   0.03814   0.03366  -0.0603  1.0000  0.0267  -5.7882   0.0000   0.1681
 -10.500  -0.8787   0.03149   0.02636  -0.0535  1.0000  0.0277  -5.8596   0.0000   0.1779
 -10.000  -0.8678   0.02756   0.02208  -0.0482  1.0000  0.0290  -5.6941   0.0000   0.1838
  -9.500  -0.8428   0.02554   0.01987  -0.0439  1.0000  0.0304  -5.4049   0.0000   0.1878
  -9.000  -0.8146   0.02363   0.01773  -0.0399  1.0000  0.0320  -5.1156   0.0000   0.1914
  -8.500  -0.7832   0.02183   0.01565  -0.0362  1.0000  0.0340  -4.8286   0.0000   0.1946
  -8.000  -0.7474   0.02081   0.01442  -0.0331  1.0000  0.0361  -4.5031   0.0000   0.1971
  -7.500  -0.7041   0.01845   0.01191  -0.0320  0.9987  0.0407  -4.1833   0.0000   0.1963
  -7.000  -0.6313   0.01725   0.01055  -0.0361  0.9936  0.0455  -3.7378   0.0000   0.1848
  -6.500  -0.5629   0.01559   0.00877  -0.0393  0.9870  0.0519  -3.3290   0.0000   0.1723
  -6.000  -0.4867   0.01465   0.00775  -0.0439  0.9812  0.0607  -2.9292   0.0000   0.1519
  -5.500  -0.4170   0.01375   0.00685  -0.0471  0.9723  0.0732  -2.5943   0.0000   0.1292
  -5.000  -0.3411   0.01264   0.00581  -0.0516  0.9661  0.0937  -2.2531   0.0000   0.0905
  -4.500  -0.2710   0.01187   0.00515  -0.0547  0.9580  0.1234  -1.9337   0.0000   0.0393
  -4.000  -0.2017   0.01106   0.00455  -0.0576  0.9486  0.1672  -1.6356   0.0000  -0.0455
  -3.500  -0.1403   0.01037   0.00406  -0.0587  0.9354  0.2245  -1.4006   0.0000  -0.1799
  -3.000  -0.0789   0.00970   0.00363  -0.0596  0.9224  0.2941  -1.1756   0.0000  -0.5226
  -2.500  -0.0255   0.00907   0.00327  -0.0588  0.9027  0.3745  -0.9868   0.0000  -2.0995
  -2.000   0.0257   0.00840   0.00302  -0.0575  0.8806  0.4910  -0.8260   0.0000   2.5212
  -1.500   0.0759   0.00782   0.00283  -0.0558  0.8558  0.6263  -0.6812   0.0000   0.9919
  -1.000   0.1254   0.00740   0.00275  -0.0536  0.8289  0.7448  -0.5546   0.0000   0.6794
  -0.500   0.1746   0.00720   0.00274  -0.0510  0.7998  0.8453  -0.5178   0.0000   0.5420
   0.000   0.2284   0.00725   0.00279  -0.0493  0.7685  0.9192  -0.5620   0.0000   0.4645
   0.500   0.2950   0.00745   0.00285  -0.0506  0.7347  0.9635  -0.6164   0.0000   0.4197
   1.000   0.3796   0.00767   0.00288  -0.0564  0.6978  0.9844  -0.6874   0.0000   0.3960
   1.500   0.4671   0.00791   0.00287  -0.0631  0.6592  1.0000  -0.7698   0.0000   0.3821
   2.000   0.5148   0.00811   0.00288  -0.0615  0.6245  1.0000  -0.8375   0.0000   0.3662
   2.500   0.5624   0.00833   0.00296  -0.0599  0.5922  1.0000  -0.9218   0.0000   0.3527
   3.000   0.6100   0.00859   0.00309  -0.0583  0.5611  1.0000  -1.0302   0.0000   0.3412
   3.500   0.6576   0.00889   0.00327  -0.0566  0.5303  1.0000  -1.1627   0.0000   0.3313
   4.000   0.7051   0.00922   0.00352  -0.0548  0.4990  1.0000  -1.3201   0.0000   0.3226
   4.500   0.7526   0.00958   0.00378  -0.0531  0.4664  1.0000  -1.4997   0.0000   0.3149
   5.000   0.8000   0.00999   0.00408  -0.0514  0.4313  1.0000  -1.7002   0.0000   0.3081
   5.500   0.8472   0.01048   0.00443  -0.0497  0.3924  1.0000  -1.9137   0.0000   0.3021
   6.000   0.8937   0.01107   0.00489  -0.0480  0.3441  1.0000  -2.1661   0.0000   0.2966
   6.500   0.9385   0.01185   0.00544  -0.0462  0.2892  1.0000  -2.4203   0.0000   0.2915
   7.000   0.9812   0.01287   0.00617  -0.0441  0.2243  1.0000  -2.6762   0.0000   0.2867
   7.500   1.0221   0.01408   0.00711  -0.0419  0.1643  1.0000  -2.9491   0.0000   0.2822
   8.000   1.0609   0.01548   0.00823  -0.0395  0.1146  1.0000  -3.2538   0.0000   0.2778
   8.500   1.0986   0.01689   0.00948  -0.0368  0.0845  1.0000  -3.5592   0.0000   0.2735
   9.000   1.1353   0.01828   0.01084  -0.0340  0.0678  1.0000  -3.8652   0.0000   0.2693
   9.500   1.1673   0.01990   0.01247  -0.0306  0.0570  1.0000  -4.1557   0.0000   0.2649
  10.000   1.1955   0.02146   0.01409  -0.0267  0.0491  1.0000  -4.4412   0.0000   0.2603
  10.500   1.2204   0.02313   0.01591  -0.0224  0.0439  1.0000  -4.7152   0.0000   0.2556
  11.000   1.2441   0.02497   0.01783  -0.0186  0.0397  1.0000  -4.9928   0.0000   0.2514
  11.500   1.2515   0.02826   0.02125  -0.0135  0.0361  1.0000  -5.1746   0.0000   0.2465
  12.000   1.2739   0.03054   0.02373  -0.0106  0.0341  1.0000  -5.4671   0.0000   0.2432
  12.500   1.2907   0.03341   0.02682  -0.0078  0.0319  1.0000  -5.7632   0.0000   0.2401
  13.000   1.3045   0.03673   0.03029  -0.0055  0.0301  1.0000  -6.0534   0.0000   0.2374
  13.500   1.3109   0.04098   0.03470  -0.0034  0.0284  1.0000  -6.2960   0.0000   0.2348
  14.000   1.3073   0.04690   0.04091  -0.0008  0.0267  1.0000  -6.4353   0.0000   0.2319
  14.500   1.3134   0.05151   0.04579  -0.0005  0.0258  1.0000  -6.6774   0.0000   0.2307
  15.000   1.3138   0.05718   0.05173  -0.0008  0.0246  1.0000  -6.8756   0.0000   0.2299
  15.500   1.3081   0.06394   0.05879  -0.0018  0.0236  1.0000  -7.0276   0.0000   0.2296
  16.000   1.2963   0.07192   0.06706  -0.0038  0.0228  1.0000  -7.1223   0.0000   0.2301
  16.500   1.2795   0.08125   0.07669  -0.0069  0.0223  1.0000  -7.1661   0.0000   0.2315
  17.000   1.2567   0.09210   0.08785  -0.0114  0.0219  1.0000  -7.1469   0.0000   0.2341
  17.500   1.2252   0.10507   0.10116  -0.0176  0.0217  1.0000  -7.0300   0.0000   0.2383
  18.000   1.1788   0.12223   0.11871  -0.0269  0.0217  1.0000  -6.7277   0.0000   0.2458
  20.000   0.9336   0.24185   0.23899  -0.0872  0.0277  1.0000  -2.4160   0.0000   0.3181
  20.500   0.9397   0.25354   0.25066  -0.0920  0.0269  1.0000  -2.2300   0.0000   0.3219
  21.000   0.9524   0.26212   0.25925  -0.0971  0.0268  1.0000  -2.1630   0.0000   0.3251
  21.500   0.9652   0.27010   0.26725  -0.1028  0.0265  1.0000  -2.1345   0.0000   0.3288
  22.000   0.9759   0.27883   0.27597  -0.1111  0.0241  1.0000  -1.9841   0.0000   0.3354
  22.500   0.9904   0.28575   0.28290  -0.1156  0.0221  1.0000  -2.0352   0.0000   0.3372
  23.000   1.0057   0.29145   0.28862  -0.1194  0.0206  1.0000  -2.1579   0.0000   0.3380
  23.500   1.0216   0.29675   0.29394  -0.1224  0.0197  1.0000  -2.3234   0.0000   0.3378
  24.000   0.5243   0.16357   0.16129  -0.0476  0.0221  1.0000  -0.8639   0.0000   0.3272
  24.500   0.5385   0.17094   0.16867  -0.0506  0.0204  1.0000  -0.9440   0.0000   0.3290
  25.000   0.5551   0.17881   0.17657  -0.0533  0.0194  1.0000  -1.0677   0.0000   0.3293
  25.500   0.5736   0.19263   0.19039  -0.0566  0.0188  1.0000  -1.0870   0.0000   0.3305
  26.000   0.5792   0.20108   0.19885  -0.0611  0.0184  1.0000  -0.9244   0.0000   0.3366
  26.500   0.5882   0.20976   0.20754  -0.0649  0.0158  1.0000  -0.8172   0.0000   0.3408
  27.000   0.6003   0.21875   0.21654  -0.0683  0.0144  1.0000  -0.8218   0.0000   0.3430
  27.500   0.6122   0.22745   0.22525  -0.0716  0.0135  1.0000  -0.8482   0.0000   0.3448
  28.000   0.6245   0.23610   0.23393  -0.0749  0.0129  1.0000  -0.8982   0.0000   0.3461
  28.500   0.6390   0.24617   0.24402  -0.0780  0.0124  1.0000  -0.9838   0.0000   0.3465
  29.000   0.6545   0.26092   0.25877  -0.0816  0.0121  1.0000  -0.9981   0.0000   0.3475
  29.500   0.6641   0.27076   0.26862  -0.0852  0.0121  1.0000  -1.0187   0.0000   0.3499
  30.000   0.6727   0.28040   0.27828  -0.0890  0.0121  1.0000  -1.0276   0.0000   0.3525


